    6
 HF/aug-cc-pVDZ Energy:   -151.698935744567
 OH2         0.0000000000        0.0000000000        0.0000000000
 H1         0.0000000000        0.0000000000        0.9700000000
 H1         0.0000000000        0.9391032112       -0.2428686039
 OH2         0.2546828951       -0.2546828951        1.6278550341
 H1         0.9404001285       -0.9404001285        1.6498493927
 H1        -0.1016444605        0.1016444605        2.4566865195
