    6
 HF/aug-cc-pVDZ Energy:   -151.677794993614
 OH2         0.0000000000        0.0000000000        0.0000000000
 H1         0.0000000000        0.0000000000        0.9700000000
 H1         0.0000000000        0.9391032112       -0.2428686039
 OH2         0.1162595113       -0.4338864029        1.5706049578
 H1         0.3655516764       -1.3642574291        1.4558740980
 H1         0.0173296474       -0.0646751246        2.4621182298
