    6
 HF/aug-cc-pVDZ Energy:   -152.078021143436
 OH2         0.0000000000        0.0000000000        0.0000000000
 H1         0.0000000000        0.0000000000        0.9700000000
 H1         0.0000000000        0.9391032112       -0.2428686039
 OH2         0.0000000000       -1.8366518401        3.3420687212
 H1         0.0000000000       -2.7977917606        3.2112633189
 H1         0.0000000000       -1.4693626813        4.2398430101
