    6
 HF/aug-cc-pVDZ Energy:   -152.077739387692
 OH2         0.0000000000        0.0000000000        0.0000000000
 H1         0.0000000000        0.0000000000        0.9700000000
 H1         0.0000000000        0.9391032112       -0.2428686039
 OH2         1.1036258790       -1.1036258790        3.8207051476
 H1         1.7893431123       -1.7893431123        3.8426995062
 H1         0.7472985234       -0.7472985234        4.6495366331
