    6
 HF/aug-cc-pVDZ Energy:   -152.076466137359
 OH2         0.0000000000        0.0000000000        0.0000000000
 H1         0.0000000000        0.0000000000        0.9700000000
 H1         0.0000000000        0.9391032112       -0.2428686039
 OH2         1.4432030725       -1.4432030725        4.6978451930
 H1         2.1289203058       -2.1289203058        4.7198395516
 H1         1.0868757169       -1.0868757169        5.5266766785
