    6
 HF/aug-cc-pVDZ Energy:   -152.076312805492
 OH2         0.0000000000        0.0000000000        0.0000000000
 H1         0.0000000000        0.0000000000        0.9700000000
 H1         0.0000000000        0.9391032112       -0.2428686039
 OH2         0.6588038972       -2.4586896167        4.3734280944
 H1         0.9080960623       -3.3890606428        4.2586972346
 H1         0.5598740334       -2.0894783384        5.2649413663
