    6
 HF/aug-cc-pVDZ Energy:   -152.076146581779
 OH2         0.0000000000        0.0000000000        0.0000000000
 H1         0.0000000000        0.0000000000        0.9700000000
 H1         0.0000000000        0.9391032112       -0.2428686039
 OH2         1.5633069084       -0.9025756644        5.6327704941
 H1         2.3933807853       -1.3818190407        5.7817776918
 H1         1.0365145716       -0.5984319669        6.3883407722
