    6
 HF/aug-cc-pVDZ Energy:   -152.076063565306
 OH2         0.0000000000        0.0000000000        0.0000000000
 H1         0.0000000000        0.0000000000        0.9700000000
 H1         0.0000000000        0.9391032112       -0.2428686039
 OH2         1.6978859677       -1.6978859677        5.3557002271
 H1         2.3836032010       -2.3836032010        5.3776945857
 H1         1.3415586120       -1.3415586120        6.1845317125
