    6
 HF/aug-cc-pVDZ Energy:   -152.075616448244
 OH2         0.0000000000        0.0000000000        0.0000000000
 H1         0.0000000000        0.0000000000        0.9700000000
 H1         0.0000000000        0.9391032112       -0.2428686039
 OH2         1.0850887719       -4.0496064275        6.5756462731
 H1         1.3343809370       -4.9799774536        6.4609154133
 H1         0.9861589081       -3.6803951492        7.4671595450
