    6
 HF/aug-cc-pVDZ Energy:   -152.075526264202
 OH2         0.0000000000        0.0000000000        0.0000000000
 H1         0.0000000000        0.0000000000        0.9700000000
 H1         0.0000000000        0.9391032112       -0.2428686039
 OH2         0.0000000000       -5.5099555203        8.0862061637
 H1         0.0000000000       -6.4710954408        7.9554007613
 H1         0.0000000000       -5.1426663615        8.9839804526
