    6
 HF/aug-cc-pVDZ Energy:   -152.076031897150
 OH2         0.0000000000        0.0000000000        0.0000000000
 H1         0.0000000000        0.0000000000        0.9700000000
 H1         0.0000000000        0.9391032112       -0.2428686039
 OH2         0.0000000000       -2.9080320802        4.7257754753
 H1         0.0000000000       -3.8691720006        4.5949700729
 H1         0.0000000000       -2.5407429213        5.6235497642
