    6
 HF/aug-cc-pVDZ Energy:   -152.075864204902
 OH2         0.0000000000        0.0000000000        0.0000000000
 H1         0.0000000000        0.0000000000        0.9700000000
 H1         0.0000000000        0.9391032112       -0.2428686039
 OH2         0.0000000000       -3.2141407202        5.1211202622
 H1         0.0000000000       -4.1752806406        4.9903148598
 H1         0.0000000000       -2.8468515613        6.0188945511
