    6
 HF/aug-cc-pVDZ Energy:   -151.958238878068
 OH2         0.0000000000        0.0000000000        0.0000000000
 H1         0.0000000000        0.0000000000        0.9700000000
 H1         0.0000000000        0.9391032112       -0.2428686039
 OH2         0.3126613817       -0.1805151329        1.9025540988
 H1         1.1427352587       -0.6597585092        2.0515612965
 H1        -0.2141309551        0.1236285646        2.6581243770
