    6
 HF/aug-cc-pVDZ Energy:   -152.075906123314
 OH2         0.0000000000        0.0000000000        0.0000000000
 H1         0.0000000000        0.0000000000        0.9700000000
 H1         0.0000000000        0.9391032112       -0.2428686039
 OH2         1.8676745644       -1.8676745644        5.7942702498
 H1         2.5533917978       -2.5533917978        5.8162646084
 H1         1.5113472088       -1.5113472088        6.6231017352
