    6
 HF/aug-cc-pVDZ Energy:   -152.075847938597
 OH2         0.0000000000        0.0000000000        0.0000000000
 H1         0.0000000000        0.0000000000        0.9700000000
 H1         0.0000000000        0.9391032112       -0.2428686039
 OH2         1.9525688628       -1.9525688628        6.0135552611
 H1         2.6382860961       -2.6382860961        6.0355496197
 H1         1.5962415072       -1.5962415072        6.8423867466
