    6
 HF/aug-cc-pVDZ Energy:   -152.075754989132
 OH2         0.0000000000        0.0000000000        0.0000000000
 H1         0.0000000000        0.0000000000        0.9700000000
 H1         0.0000000000        0.9391032112       -0.2428686039
 OH2         0.0000000000       -3.5202493602        5.5164650490
 H1         0.0000000000       -4.4813892807        5.3856596467
 H1         0.0000000000       -3.1529602014        6.4142393379
