    6
 HF/aug-cc-pVDZ Energy:   -152.075599294595
 OH2         0.0000000000        0.0000000000        0.0000000000
 H1         0.0000000000        0.0000000000        0.9700000000
 H1         0.0000000000        0.9391032112       -0.2428686039
 OH2         2.7166175482       -2.7166175482        7.9871203633
 H1         3.4023347816       -3.4023347816        8.0091147219
 H1         2.3602901926       -2.3602901926        8.8159518488
