    6
 HF/aug-cc-pVDZ Energy:   -152.075555425726
 OH2         0.0000000000        0.0000000000        0.0000000000
 H1         0.0000000000        0.0000000000        0.9700000000
 H1         0.0000000000        0.9391032112       -0.2428686039
 OH2         0.0000000000       -4.8977382403        7.2955165900
 H1         0.0000000000       -5.8588781607        7.1647111876
 H1         0.0000000000       -4.5304490814        8.1932908788
