    6
 HF/aug-cc-pVDZ Energy:   -152.029266101981
 OH2         0.0000000000        0.0000000000        0.0000000000
 H1         0.0000000000        0.0000000000        0.9700000000
 H1         0.0000000000        0.9391032112       -0.2428686039
 OH2         0.1937658521       -0.7231440049        1.9710082631
 H1         0.4430580172       -1.6535150310        1.8562774033
 H1         0.0948359883       -0.3539327266        2.8625215350
