    6
 HF/aug-cc-pVDZ Energy:   -152.028454376867
 OH2         0.0000000000        0.0000000000        0.0000000000
 H1         0.0000000000        0.0000000000        0.9700000000
 H1         0.0000000000        0.9391032112       -0.2428686039
 OH2         0.0000000000       -0.7652716000        1.9583619672
 H1         0.0000000000       -1.7264115205        1.8275565648
 H1         0.0000000000       -0.3979824412        2.8561362561
