    6
 HF/aug-cc-pVDZ Energy:   -152.068649519631
 OH2         0.0000000000        0.0000000000        0.0000000000
 H1         0.0000000000        0.0000000000        0.9700000000
 H1         0.0000000000        0.9391032112       -0.2428686039
 OH2         0.4689920725       -0.2707726993        2.3688311482
 H1         1.2990659495       -0.7500160756        2.5178383459
 H1        -0.0578002643        0.0333709981        3.1244014264
