    6
 HF/aug-cc-pVDZ Energy:   -152.075901631094
 OH2         0.0000000000        0.0000000000        0.0000000000
 H1         0.0000000000        0.0000000000        0.9700000000
 H1         0.0000000000        0.9391032112       -0.2428686039
 OH2         0.0000000000       -1.0713802401        2.3537067541
 H1         0.0000000000       -2.0325201605        2.2229013517
 H1         0.0000000000       -0.7040910812        3.2514810429
