    6
 HF/aug-cc-pVDZ Energy:   -152.079893860131
 OH2         0.0000000000        0.0000000000        0.0000000000
 H1         0.0000000000        0.0000000000        0.9700000000
 H1         0.0000000000        0.9391032112       -0.2428686039
 OH2         0.8489429838       -0.8489429838        3.1628501135
 H1         1.5346602172       -1.5346602172        3.1848444721
 H1         0.4926156282       -0.4926156282        3.9916815990
