    6
 HF/aug-cc-pVDZ Energy:   -152.079321660008
 OH2         0.0000000000        0.0000000000        0.0000000000
 H1         0.0000000000        0.0000000000        0.9700000000
 H1         0.0000000000        0.9391032112       -0.2428686039
 OH2         0.8598187996       -0.4964166154        3.5345237717
 H1         1.6898926766       -0.9756599917        3.6835309694
 H1         0.3330264628       -0.1922729180        4.2900940499
