%nproc=4
%mem=5760MB
%chk=gaussian_149_water_b3lyp_pdz.chk
#P B3LYP/6-31g* scf(maxcycle=200) 

Gaussian input

0 1
O      0.000000000000000      0.117510000000000      0.000000000000000
H      0.797362230620614     -0.500789662930297      0.000000000000000
H     -0.737224281395168     -0.495826252736929      0.000000000000000


