%nproc=4
%mem=5760MB
%chk=gaussian_46_water_pbe0_adz.chk
#P PBE1PBE/aug-cc-pVDZ scf(maxcycle=200) 

Gaussian input

0 1
O      0.000000000000000      0.117510000000000      0.000000000000000
H      0.718337232541267     -0.439511202778632      0.000000000000000
H     -0.703958566238604     -0.605347757113589      0.000000000000000


