    6
 HF/aug-cc-pVDZ Energy:   -151.712500425427
 OH2         0.0000000000        0.0000000000        0.0000000000
 H1         0.0000000000        0.0000000000        0.9700000000
 H1         0.0000000000        0.9391032112       -0.2428686039
 OH2         0.2344960363       -0.1353863497        1.6694155741
 H1         1.0645699133       -0.6146297260        1.8184227718
 H1        -0.2922963005        0.1687573478        2.4249858523
