    6
 HF/aug-cc-pVDZ Energy:   -151.674759170895
 OH2         0.0000000000        0.0000000000        0.0000000000
 H1         0.0000000000        0.0000000000        0.9700000000
 H1         0.0000000000        0.9391032112       -0.2428686039
 OH2         0.0000000000       -0.4591629600        1.5630171803
 H1         0.0000000000       -1.4203028805        1.4322117779
 H1         0.0000000000       -0.0918738012        2.4607914692
