    6
 HF/aug-cc-pVDZ Energy:   -152.078322272402
 OH2         0.0000000000        0.0000000000        0.0000000000
 H1         0.0000000000        0.0000000000        0.9700000000
 H1         0.0000000000        0.9391032112       -0.2428686039
 OH2         1.0187315806       -1.0187315806        3.6014201362
 H1         1.7044488139       -1.7044488139        3.6234144948
 H1         0.6624042250       -0.6624042250        4.4302516217
