    6
 HF/aug-cc-pVDZ Energy:   -152.077502285020
 OH2         0.0000000000        0.0000000000        0.0000000000
 H1         0.0000000000        0.0000000000        0.9700000000
 H1         0.0000000000        0.9391032112       -0.2428686039
 OH2         0.5037912155       -1.8801744128        3.5726214839
 H1         0.7530833806       -2.8105454389        3.4578906242
 H1         0.4048613517       -1.5109631345        4.4641347559
