    6
 HF/aug-cc-pVDZ Energy:   -152.077475083969
 OH2         0.0000000000        0.0000000000        0.0000000000
 H1         0.0000000000        0.0000000000        0.9700000000
 H1         0.0000000000        0.9391032112       -0.2428686039
 OH2         0.0000000000       -1.9897061601        3.5397411147
 H1         0.0000000000       -2.9508460806        3.4089357123
 H1         0.0000000000       -1.6224170013        4.4375154036
