    6
 HF/aug-cc-pVDZ Energy:   -152.077286756748
 OH2         0.0000000000        0.0000000000        0.0000000000
 H1         0.0000000000        0.0000000000        0.9700000000
 H1         0.0000000000        0.9391032112       -0.2428686039
 OH2         1.1885201774       -1.1885201774        4.0399901589
 H1         1.8742374107       -1.8742374107        4.0619845175
 H1         0.8321928217       -0.8321928217        4.8688216444
