    6
 HF/aug-cc-pVDZ Energy:   -152.077075343414
 OH2         0.0000000000        0.0000000000        0.0000000000
 H1         0.0000000000        0.0000000000        0.9700000000
 H1         0.0000000000        0.9391032112       -0.2428686039
 OH2         0.5425443860       -2.0248032138        3.7728231366
 H1         0.7918365511       -2.9551742399        3.6580922768
 H1         0.4436145221       -1.6555919355        4.6643364085
