    6
 HF/aug-cc-pVDZ Energy:   -152.077050507653
 OH2         0.0000000000        0.0000000000        0.0000000000
 H1         0.0000000000        0.0000000000        0.9700000000
 H1         0.0000000000        0.9391032112       -0.2428686039
 OH2         0.0000000000       -2.1427604801        3.7374135081
 H1         0.0000000000       -3.1039004006        3.6066081057
 H1         0.0000000000       -1.7754713213        4.6351877970
