    6
 HF/aug-cc-pVDZ Energy:   -152.075580266402
 OH2         0.0000000000        0.0000000000        0.0000000000
 H1         0.0000000000        0.0000000000        0.9700000000
 H1         0.0000000000        0.9391032112       -0.2428686039
 OH2         2.8139524350       -1.6246361959        9.3629868893
 H1         3.6440263120       -2.1038795722        9.5119940870
 H1         2.2871600983       -1.3204924984       10.1185571675
