    6
 HF/aug-cc-pVDZ Energy:   -152.075559333252
 OH2         0.0000000000        0.0000000000        0.0000000000
 H1         0.0000000000        0.0000000000        0.9700000000
 H1         0.0000000000        0.9391032112       -0.2428686039
 OH2         3.0561947418       -3.0561947418        8.8642604087
 H1         3.7419119751       -3.7419119751        8.8862547673
 H1         2.6998673862       -2.6998673862        9.6930918942
