    6
 HF/aug-cc-pVDZ Energy:   -152.076170373007
 OH2         0.0000000000        0.0000000000        0.0000000000
 H1         0.0000000000        0.0000000000        0.9700000000
 H1         0.0000000000        0.9391032112       -0.2428686039
 OH2         1.6129916693       -1.6129916693        5.1364152157
 H1         2.2987089026       -2.2987089026        5.1584095743
 H1         1.2566643137       -1.2566643137        5.9652467012
