    6
 HF/aug-cc-pVDZ Energy:   -152.075938931474
 OH2         0.0000000000        0.0000000000        0.0000000000
 H1         0.0000000000        0.0000000000        0.9700000000
 H1         0.0000000000        0.9391032112       -0.2428686039
 OH2         0.0000000000       -3.0610864002        4.9234478687
 H1         0.0000000000       -4.0222263206        4.7926424664
 H1         0.0000000000       -2.6937972413        5.8212221576
