    6
 HF/aug-cc-pVDZ Energy:   -151.950331043135
 OH2         0.0000000000        0.0000000000        0.0000000000
 H1         0.0000000000        0.0000000000        0.9700000000
 H1         0.0000000000        0.9391032112       -0.2428686039
 OH2         0.3395771935       -0.3395771935        1.8471400454
 H1         1.0252944269       -1.0252944269        1.8691344040
 H1        -0.0167501621        0.0167501621        2.6759715309
