    6
 HF/aug-cc-pVDZ Energy:   -152.075799497559
 OH2         0.0000000000        0.0000000000        0.0000000000
 H1         0.0000000000        0.0000000000        0.9700000000
 H1         0.0000000000        0.9391032112       -0.2428686039
 OH2         2.0374631612       -2.0374631612        6.2328402725
 H1         2.7231803945       -2.7231803945        6.2548346311
 H1         1.6811358056       -1.6811358056        7.0616717579
