    6
 HF/aug-cc-pVDZ Energy:   -152.075714747224
 OH2         0.0000000000        0.0000000000        0.0000000000
 H1         0.0000000000        0.0000000000        0.9700000000
 H1         0.0000000000        0.9391032112       -0.2428686039
 OH2         0.0000000000       -3.6733036802        5.7141374425
 H1         0.0000000000       -4.6344436007        5.5833320401
 H1         0.0000000000       -3.3060145214        6.6119117314
