    6
 HF/aug-cc-pVDZ Energy:   -152.075609495608
 OH2         0.0000000000        0.0000000000        0.0000000000
 H1         0.0000000000        0.0000000000        0.9700000000
 H1         0.0000000000        0.9391032112       -0.2428686039
 OH2         0.0000000000       -4.2855209602        6.5048270162
 H1         0.0000000000       -5.2466608807        6.3740216138
 H1         0.0000000000       -3.9182318014        7.4026013051
