    6
 HF/aug-cc-pVDZ Energy:   -152.081899048197
 OH2         0.0000000000        0.0000000000        0.0000000000
 H1         0.0000000000        0.0000000000        0.9700000000
 H1         0.0000000000        0.9391032112       -0.2428686039
 OH2        -0.0000000000       -0.0000000000        2.9700000000
 H1         0.8400446417       -0.0000000000        3.4550000000
 H1        -0.8400446417       -0.0000000000        3.4550000000
