    6
 HF/aug-cc-pVDZ Energy:   -152.081078236112
 OH2         0.0000000000        0.0000000000        0.0000000000
 H1         0.0000000000        0.0000000000        0.9700000000
 H1         0.0000000000        0.9391032112       -0.2428686039
 OH2         0.6253227633       -0.3610302657        2.8351081976
 H1         1.4553966403       -0.8402736421        2.9841153953
 H1         0.0985304266       -0.0568865683        3.5906784758
