    6
 HF/aug-cc-pVDZ Energy:   -152.080427379460
 OH2         0.0000000000        0.0000000000        0.0000000000
 H1         0.0000000000        0.0000000000        0.9700000000
 H1         0.0000000000        0.9391032112       -0.2428686039
 OH2         0.6791543871       -0.6791543871        2.7242800908
 H1         1.3648716204       -1.3648716204        2.7462744494
 H1         0.3228270314       -0.3228270314        3.5531115763
