    6
 HF/aug-cc-pVDZ Energy:   -152.079630176507
 OH2         0.0000000000        0.0000000000        0.0000000000
 H1         0.0000000000        0.0000000000        0.9700000000
 H1         0.0000000000        0.9391032112       -0.2428686039
 OH2         0.3100253634       -1.1570304079        2.5716132209
 H1         0.5593175285       -2.0874014340        2.4568823611
 H1         0.2110954995       -0.7878191296        3.4631264928
