    6
 HF/aug-cc-pVDZ Energy:   -152.079541388164
 OH2         0.0000000000        0.0000000000        0.0000000000
 H1         0.0000000000        0.0000000000        0.9700000000
 H1         0.0000000000        0.9391032112       -0.2428686039
 OH2         0.0000000000       -1.2244345601        2.5513791475
 H1         0.0000000000       -2.1855744805        2.4205737451
 H1         0.0000000000       -0.8571454012        3.4491534364
