    6
 HF/aug-cc-pVDZ Energy:   -152.081026109275
 OH2         0.0000000000        0.0000000000        0.0000000000
 H1         0.0000000000        0.0000000000        0.9700000000
 H1         0.0000000000        0.9391032112       -0.2428686039
 OH2         0.7034881088       -0.4061590490        3.0682467223
 H1         1.5335619858       -0.8854024253        3.2172539200
 H1         0.1766957720       -0.1020153515        3.8238170005
