    6
 HF/aug-cc-pVDZ Energy:   -152.080065294016
 OH2         0.0000000000        0.0000000000        0.0000000000
 H1         0.0000000000        0.0000000000        0.9700000000
 H1         0.0000000000        0.9391032112       -0.2428686039
 OH2         0.3487785338       -1.3016592088        2.7718148735
 H1         0.5980706989       -2.2320302350        2.6570840137
 H1         0.2498486700       -0.9324479305        3.6633281454
