    6
 HF/aug-cc-pVDZ Energy:   -152.080222823364
 OH2         0.0000000000        0.0000000000        0.0000000000
 H1         0.0000000000        0.0000000000        0.9700000000
 H1         0.0000000000        0.9391032112       -0.2428686039
 OH2         0.7816534542       -0.4512878322        3.3013852470
 H1         1.6117273312       -0.9305312085        3.4503924447
 H1         0.2548611174       -0.1471441347        4.0569555252
