    6
 HF/aug-cc-pVDZ Energy:   -152.079504370461
 OH2         0.0000000000        0.0000000000        0.0000000000
 H1         0.0000000000        0.0000000000        0.9700000000
 H1         0.0000000000        0.9391032112       -0.2428686039
 OH2         0.3875317043       -1.4462880098        2.9720165261
 H1         0.6368238694       -2.3766590359        2.8572856663
 H1         0.2886018404       -1.0770767315        3.8635297980
