    6
 HF/aug-cc-pVDZ Energy:   -152.079055342415
 OH2         0.0000000000        0.0000000000        0.0000000000
 H1         0.0000000000        0.0000000000        0.9700000000
 H1         0.0000000000        0.9391032112       -0.2428686039
 OH2         0.9338372822       -0.9338372822        3.3821351249
 H1         1.6195545155       -1.6195545155        3.4041294835
 H1         0.5775099266       -0.5775099266        4.2109666103
