    6
 HF/aug-cc-pVDZ Energy:   -152.078738160469
 OH2         0.0000000000        0.0000000000        0.0000000000
 H1         0.0000000000        0.0000000000        0.9700000000
 H1         0.0000000000        0.9391032112       -0.2428686039
 OH2         0.4262848747       -1.5909168108        3.1722181787
 H1         0.6755770398       -2.5212878369        3.0574873189
 H1         0.3273550108       -1.2217055325        4.0637314506
